purposes/circbtfull_storage.dss
Clear

// Equivalente de Thevenin
New Circuit.MT phases=3 basekv=13.8 pu=1.01 bus1=P0.1.2.3 frequency=60 R1=0 X1=0.00001

// Transformador
New Transformer.TRAFO phases=3 windings=2 buses=(P0.1.2.3  P1.1.2.3.4) Conns=(Delta wye)  kvs=(13.8 0.22)  kVas=(75 75) Taps=[1.0  1.0]  %loadloss=0.3807 %noloadloss=0.002
New Reactor.TRAFO_R phases=1 bus1=P1.4 Bus2=P1.0 R=15.0  X=0 basefreq=60

// Definição dos cabos
New Linecode.Cabo2CA nphases=4 basefreq=60 r1=0.9632 x1=0.3420 r0=3.8528 x0=1.3680 units=km normamps=138
New Linecode.Cabo4CA nphases=4 basefreq=60 r1=1.5285 x1=0.3603 r0=6.1140 x0=1.4412 units=km normamps=100

// Definição dos Loadshapes
New loadshape.CurvaCARGA npts=144 minterval=10 mult=(0.568	0.563	0.560	0.567	0.562	0.563	0.564	0.556	0.546	0.543	0.541	0.539	0.532	0.530	0.530	0.529	0.532	0.531	0.530	0.527	0.516	0.507	0.502	0.499	0.494	0.493	0.490	0.494	0.497	0.501	0.502	0.509	0.510	0.511	0.506	0.507	0.510	0.507	0.509	0.514	0.523	0.527	0.531	0.535	0.542	0.544	0.545	0.553	0.556	0.561	0.562	0.561	0.562	0.562	0.565	0.567	0.566	0.572	0.579	0.582	0.587	0.588	0.598	0.600	0.599	0.592	0.583	0.576	0.565	0.554	0.544	0.544	0.546	0.544	0.544	0.548	0.549	0.549	0.549	0.564	0.579	0.590	0.609	0.632	0.653	0.667	0.698	0.703	0.705	0.711	0.717	0.721	0.726	0.722	0.702	0.700	0.697	0.696	0.703	0.712	0.734	0.741	0.765	0.771	0.783	0.812	0.878	0.912	0.972	0.985	1.000	0.990	0.982	0.988	0.978	0.967	0.934	0.912	0.898	0.892	0.890	0.888	0.886	0.885	0.878	0.870	0.843	0.818	0.798	0.756	0.743	0.732	0.724	0.721	0.712	0.705	0.706	0.703	0.692	0.672	0.656	0.632	0.598	0.578)
New loadshape.CurvaGD_GEN npts=144 minterval=10 mult=(0.000	0.000	0.000	0.000	0.000	0.000	0.000	0.000	0.000	0.000	0.000	0.000	0.000	0.000	0.000	0.000	0.000	0.000	0.000	0.000	0.000	0.000	0.000	0.000	0.000	0.000	0.000	0.000	0.000	0.000	0.000	0.000	0.000	0.000	0.000	0.000	0.000	0.000	0.000	0.000	0.000	0.000	0.000	0.000	0.000	0.000	0.000	0.000	0.000	0.000	0.000	0.040	0.090	0.260	0.300	0.360	0.410	0.430	0.470	0.490	0.550	0.590	0.602	0.610	0.608	0.620	0.630	0.632	0.630	0.631	0.640	0.630	0.634	0.613	0.612	0.602	0.601	0.605	0.600	0.598	0.579	0.567	0.543	0.523	0.450	0.420	0.380	0.320	0.298	0.160	0.110	0.090	0.035	0.000	0.000	0.000	0.000	0.000	0.000	0.000	0.000	0.000	0.000	0.000	0.000	0.000	0.000	0.000	0.000	0.000	0.000	0.000	0.000	0.000	0.000	0.000	0.000	0.000	0.000	0.000	0.000	0.000	0.000	0.000	0.000	0.000	0.000	0.000	0.000	0.000	0.000	0.000	0.000	0.000	0.000	0.000	0.000	0.000	0.000	0.000	0.000	0.000	0.000	0.000)
New loadshape.CurvaGD_CARGA npts=144 minterval=10 mult=(0.568	0.563	0.560	0.567	0.562	0.563	0.564	0.556	0.546	0.543	0.541	0.539	0.532	0.530	0.530	0.529	0.532	0.531	0.530	0.527	0.516	0.507	0.502	0.499	0.494	0.493	0.490	0.494	0.497	0.501	0.502	0.509	0.510	0.511	0.506	0.491	0.471	0.468	0.466	0.461	0.452	0.442	0.431	0.413	0.402	0.387	0.345	0.326	0.256	0.124	0.098	0.000	0.000	0.000	0.000	0.000	0.000	0.000	0.000	0.000	0.000	0.000	0.000	0.000	0.000	0.000	0.000	0.000	0.000	0.000	0.000	0.000	0.000	0.000	0.000	0.000	0.000	0.000	0.000	0.000	0.000	0.000	0.000	0.000	0.000	0.000	0.000	0.000	0.000	0.000	0.000	0.000	0.000	0.040	0.293	0.367	0.489	0.512	0.598	0.612	0.656	0.700	0.710	0.738	0.783	0.812	0.878	0.912	0.972	0.985	1.000	0.990	0.982	0.988	0.978	0.967	0.934	0.912	0.898	0.892	0.890	0.888	0.886	0.885	0.878	0.870	0.843	0.818	0.798	0.756	0.743	0.732	0.724	0.721	0.712	0.705	0.706	0.703	0.692	0.672	0.656	0.632	0.598	0.578)
New loadshape.CurvaIP npts=144 minterval=10 mult=(1.000	1.000	1.000	1.000	1.000	1.000	1.000	1.000	1.000	1.000	1.000	1.000	1.000	1.000	1.000	1.000	1.000	1.000	1.000	1.000	1.000	1.000	1.000	1.000	1.000	1.000	1.000	1.000	1.000	1.000	1.000	1.000	1.000	1.000	1.000	0.000	0.000	0.000	0.000	0.000	0.000	0.000	0.000	0.000	0.000	0.000	0.000	0.000	0.000	0.000	0.000	0.000	0.000	0.000	0.000	0.000	0.000	0.000	0.000	0.000	0.000	0.000	0.000	0.000	0.000	0.000	0.000	0.000	0.000	0.000	0.000	0.000	0.000	0.000	0.000	0.000	0.000	0.000	0.000	0.000	0.000	0.000	0.000	0.000	0.000	0.000	0.000	0.000	0.000	0.000	0.000	0.000	0.000	0.000	0.000	0.000	0.000	0.000	0.000	0.000	0.000	0.000	0.000	0.000	0.000	0.000	0.000	1.000	1.000	1.000	1.000	1.000	1.000	1.000	1.000	1.000	1.000	1.000	1.000	1.000	1.000	1.000	1.000	1.000	1.000	1.000	1.000	1.000	1.000	1.000	1.000	1.000	1.000	1.000	1.000	1.000	1.000	1.000	1.000	1.000	1.000	1.000	1.000	1.000)
New loadshape.Storage_Device npts=144 minterval=10 mult=(0.000	0.000	0.000	0.000	0.000	0.000	0.000	0.000	0.000	0.000	0.000	0.000	0.000	0.000	0.000	0.000	0.000	0.000	0.000	0.000	0.000	0.000	0.000	0.000	0.000	0.000	0.000	0.000	0.000	0.000	0.000	0.000	0.000	0.000	0.000	0.000	0.000	0.000	0.000	0.000	0.000	0.000	0.000	0.000	0.000	0.000	0.000	0.000	0.000	0.000	0.000	0.000	0.000	0.000	0.000	0.000	0.000	-0.500	-0.500	-1.000	-1.000	-1.000	-1.000	-1.000	-1.000	-1.000	-1.000	-1.000	-1.000	-1.000	-1.000	-1.000	-1.000	-1.000	-1.000	-1.000	-1.000	-1.000	-1.000	-1.000	-1.000	-1.000	-1.000	-1.000	-1.000	-1.000	-1.000	-1.000	0.000	0.000	0.000	0.000	0.000	0.000	0.000	0.000	0.000	0.000	0.000	0.000	0.000	0.000	0.000	0.000	0.000	0.000	1.000	1.000	1.000	1.000	1.000	1.000	1.000	1.000	1.000	1.000	1.000	1.000	1.000	1.000	1.000	1.000	1.000	1.000	1.000	1.000	1.000	1.000	1.000	1.000	1.000	1.000	1.000	0.500	0.500	0.500	0.500	0.500	0.500	0.000	0.000	0.000	0.000	0.000)

// Definição dos trechos de rede BT
New Line.P1_P2 phases=4 bus1=P1.1.2.3.4 bus2=P2.1.2.3.4 length=0.030 linecode=Cabo2CA
New Line.P2_P3 phases=4 bus1=P2.1.2.3.4 bus2=P3.1.2.3.4 length=0.030 linecode=Cabo2CA
New Line.P3_P4 phases=4 bus1=P3.1.2.3.4 bus2=P4.1.2.3.4 length=0.030 linecode=Cabo2CA
New Line.P4_P5 phases=4 bus1=P4.1.2.3.4 bus2=P5.1.2.3.4 length=0.030 linecode=Cabo2CA
New Line.P5_P6 phases=4 bus1=P5.1.2.3.4 bus2=P6.1.2.3.4 length=0.030 linecode=Cabo2CA
New Line.P6_P7 phases=4 bus1=P6.1.2.3.4 bus2=P7.1.2.3.4 length=0.030 linecode=Cabo2CA
New Line.P1_P8 phases=4 bus1=P1.1.2.3.4 bus2=P8.1.2.3.4 length=0.030 linecode=Cabo2CA
New Line.P8_P9 phases=4 bus1=P8.1.2.3.4 bus2=P9.1.2.3.4 length=0.030 linecode=Cabo4CA
New Line.P9_P10 phases=4 bus1=P9.1.2.3.4 bus2=P10.1.2.3.4 length=0.030 linecode=Cabo4CA
New Line.P10_P11 phases=4 bus1=P10.1.2.3.4 bus2=P11.1.2.3.4 length=0.030 linecode=Cabo4CA
New Line.P8_P12 phases=4 bus1=P8.1.2.3.4 bus2=P12.1.2.3.4 length=0.030 linecode=Cabo2CA
New Line.P12_P13 phases=4 bus1=P12.1.2.3.4 bus2=P13.1.2.3.4 length=0.030 linecode=Cabo2CA
New Line.P13_P14 phases=4 bus1=P13.1.2.3.4 bus2=P14.1.2.3.4 length=0.030 linecode=Cabo4CA
New Line.P14_P15 phases=4 bus1=P14.1.2.3.4 bus2=P15.1.2.3.4 length=0.030 linecode=Cabo4CA

// Alocação das cargas de unidades consumidoras
New Load.P1_1 Bus1=P1.1.2.4 phases=1 conn=wye Model=2 kV=0.22 kW=2.00 pf=0.92 Vminpu=0.92 Vmaxpu=1.50 daily=CurvaCARGA status=variable 
New Load.P1_2 Bus1=P1.1.2.3.4 phases=3 conn=delta Model=2 kV=0.22 kW=3.00 pf=0.92 Vminpu=0.92 Vmaxpu=1.50 daily=CurvaCARGA status=variable 
New Load.P2_2 Bus1=P2.1.3.4 phases=1 conn=wye Model=2 kV=0.22 kW=2.00 pf=0.92 Vminpu=0.92 Vmaxpu=1.50 daily=CurvaCARGA status=variable 
New Load.P2_3 Bus1=P2.2.4 phases=1 conn=wye Model=2 kV=0.22 kW=1.50 pf=0.92 Vminpu=0.92 Vmaxpu=1.50 daily=CurvaCARGA status=variable 
New Load.P3_2 Bus1=P3.1.4 phases=1 conn=wye Model=2 kV=0.22 kW=1.20 pf=0.92 Vminpu=0.92 Vmaxpu=1.50 daily=CurvaCARGA status=variable 
New Load.P4_1 Bus1=P4.3.4 phases=1 conn=wye Model=2 kV=0.22 kW=2.00 pf=0.92 Vminpu=0.92 Vmaxpu=1.50 daily=CurvaCARGA status=variable 
New Load.P4_2 Bus1=P4.1.2.4 phases=1 conn=wye Model=2 kV=0.22 kW=2.20 pf=0.92 Vminpu=0.92 Vmaxpu=1.50 daily=CurvaCARGA status=variable 
New Load.P5_2 Bus1=P5.1.2.3.4 phases=3 conn=delta Model=2 kV=0.22 kW=5.00 pf=0.92 Vminpu=0.92 Vmaxpu=1.50 daily=CurvaCARGA status=variable 
New Load.P6_2 Bus1=P6.2.4 phases=1 conn=wye Model=2 kV=0.22 kW=1.8 pf=0.92 Vminpu=0.92 Vmaxpu=1.50 daily=CurvaCARGA status=variable 
New Load.P8_2 Bus1=P8.1.4 phases=1 conn=wye Model=2 kV=0.22 kW=2.00 pf=0.92 Vminpu=0.92 Vmaxpu=1.50 daily=CurvaCARGA status=variable 
New Load.P8_3 Bus1=P8.1.2.4 phases=1 conn=wye Model=2 kV=0.22 kW=2.50 pf=0.92 Vminpu=0.92 Vmaxpu=1.50 daily=CurvaCARGA status=variable
New Load.P9_1 Bus1=P9.2.4 phases=1 conn=wye Model=2 kV=0.22 kW=1.2 pf=0.92 Vminpu=0.92 Vmaxpu=1.50 daily=CurvaCARGA status=variable
New Load.P9_2 Bus1=P9.2.3.4 phases=1 conn=wye Model=2 kV=0.22 kW=3.5 pf=0.92 Vminpu=0.92 Vmaxpu=1.50 daily=CurvaCARGA status=variable
New Load.P10_2 Bus1=P10.1.3.4 phases=1 conn=wye Model=2 kV=0.22 kW=2.6 pf=0.92 Vminpu=0.92 Vmaxpu=1.50 daily=CurvaCARGA status=variable
New Load.P11_1 Bus1=P11.2.3.4 phases=1 conn=wye Model=2 kV=0.22 kW=4.0 pf=0.92 Vminpu=0.92 Vmaxpu=1.50 daily=CurvaCARGA status=variable
New Load.P11_2 Bus1=P11.1.4 phases=1 conn=wye Model=2 kV=0.22 kW=1.70 pf=0.92 Vminpu=0.92 Vmaxpu=1.50 daily=CurvaCARGA status=variable
New Load.P13_1 Bus1=P13.3.4 phases=1 conn=wye Model=2 kV=0.22 kW=2.00 pf=0.92 Vminpu=0.92 Vmaxpu=1.50 daily=CurvaCARGA status=variable
New Load.P13_2 Bus1=P13.2.3.4 phases=1 conn=wye Model=2 kV=0.22 kW=3.00 pf=0.92 Vminpu=0.92 Vmaxpu=1.50 daily=CurvaCARGA status=variable
New Load.P15_1 Bus1=P15.3.4 phases=1 conn=wye Model=2 kV=0.22 kW=1.2 pf=0.92 Vminpu=0.92 Vmaxpu=1.50 daily=CurvaCARGA status=variable
New Load.P15_2 Bus1=P15.2.3.4 phases=1 conn=wye Model=2 kV=0.22 kW=2.5 pf=0.92 Vminpu=0.92 Vmaxpu=1.50 daily=CurvaCARGA status=variable

New Load.P2_1 Bus1=P2.2.3.4 phases=1 conn=wye Model=3 kV=0.22 kW=2.0 pf=1.0 Vminpu=0.92 Vmaxpu=1.50 daily=CurvaGD_CARGA status=variable
New Load.P3_1 Bus1=P3.1.2.3.4 phases=3 conn=delta Model=3 kV=0.22 kW=6.00 pf=1.0 Vminpu=0.92 Vmaxpu=1.50 daily=CurvaGD_CARGA status=variable 
New Load.P5_1 Bus1=P5.1.3.4 phases=1 conn=wye Model=3 kV=0.22 kW=8.00 pf=1.0 Vminpu=0.92 Vmaxpu=1.50 daily=CurvaGD_CARGA status=variable 
New Load.P6_1 Bus1=P6.1.2.4 phases=1 conn=wye Model=3 kV=0.22 kW=5.00 pf=1.0 Vminpu=0.92 Vmaxpu=1.50 daily=CurvaGD_CARGA status=variable 
New Load.P7_1 Bus1=P7.1.2.3.4 phases=3 conn=delta Model=3 kV=0.22 kW=7.0 pf=1.0 Vminpu=0.92 Vmaxpu=1.50 daily=CurvaGD_CARGA status=variable 
New Load.P8_1 Bus1=P8.2.3.4 phases=1 conn=wye Model=3 kV=0.22 kW=5.00 pf=1.0 Vminpu=0.92 Vmaxpu=1.50 daily=CurvaGD_CARGA status=variable 
New Load.P10_1 Bus1=P10.1.2.3.4 phases=3 conn=delta Model=3 kV=0.22 kW=8.0 pf=1.0 Vminpu=0.92 Vmaxpu=1.50 daily=CurvaGD_CARGA status=variable
New Load.P12_1 Bus1=P12.1.2.4 phases=1 conn=wye Model=3 kV=0.22 kW=5.00 pf=1.00 Vminpu=0.92 Vmaxpu=1.50 daily=CurvaGD_CARGA status=variable
New Load.P12_2 Bus1=P12.2.3.4 phases=1 conn=wye Model=3 kV=0.22 kW=6.00 pf=1.00 Vminpu=0.92 Vmaxpu=1.50 daily=CurvaGD_CARGA status=variable
New Load.P14_1 Bus1=P14.1.2.3.4 phases=3 conn=delta Model=3 kV=0.22 kW=8.0 pf=1.00 Vminpu=0.92 Vmaxpu=1.50 daily=CurvaGD_CARGA status=variable

New Generator.P2_1_G Bus1=P2.2.3.4 kv=0.22 kw=2.00 pf=1 model=7 daily=CurvaGD_GEN phases=1 conn=wye
New Generator.P3_1_G Bus1=P3.1.2.3.4 kv=0.22 kw=6.00 pf=1 model=7 daily=CurvaGD_GEN phases=3 conn=delta
New Generator.P5_1_G Bus1=P5.1.3.4 kv=0.22 kw=8.00 pf=1 model=7 daily=CurvaGD_GEN phases=1 conn=wye
New Generator.P6_1_G Bus1=P6.1.2.4 kv=0.22 kw=5.00 pf=1 model=7 daily=CurvaGD_GEN phases=1 conn=wye
New Generator.P7_1_G Bus1=P7.1.2.3.4 kv=0.22 kw=7.00 pf=1 model=7 daily=CurvaGD_GEN phases=3 conn=delta
New Generator.P8_1_G Bus1=P8.2.3.4 kv=0.22 kw=5.00 pf=1 model=7 daily=CurvaGD_GEN phases=1 conn=wye
New Generator.P10_1_G Bus1=P10.1.2.3.4 kv=0.22 kw=8.00 pf=1 model=7 daily=CurvaGD_GEN phases=3 conn=wye
New Generator.P12_1_G Bus1=P12.1.2.4 kv=0.22 kw=5.00 pf=1 model=7 daily=CurvaGD_GEN phases=1 conn=wye
New Generator.P12_2_G Bus1=P12.2.3.4 kv=0.22 kw=6.00 pf=1 model=7 daily=CurvaGD_GEN phases=1 conn=wye
New Generator.P14_1_G Bus1=P14.1.2.3.4 kv=0.22 kw=8.00 pf=1 model=7 daily=CurvaGD_GEN phases=3 conn=delta

// Alocação das cargas de iluminação pública (IP)
New Load.P1_IP Bus1=P1.1.2.4 phases=1 conn=wye Model=5 kV=0.22 kW=0.15 pf=1.0 Vminpu=0.92 Vmaxpu=1.50 daily=CurvaIP status=variable 
New Load.P2_IP Bus1=P2.2.3.4 phases=1 conn=wye Model=5 kV=0.22 kW=0.15 pf=1.0 Vminpu=0.92 Vmaxpu=1.50 daily=CurvaIP status=variable 
New Load.P3_IP Bus1=P3.1.3.4 phases=1 conn=wye Model=5 kV=0.22 kW=0.15 pf=1.0 Vminpu=0.92 Vmaxpu=1.50 daily=CurvaIP status=variable 
New Load.P4_IP Bus1=P4.1.2.4 phases=1 conn=wye Model=5 kV=0.22 kW=0.15 pf=1.0 Vminpu=0.92 Vmaxpu=1.50 daily=CurvaIP status=variable 
New Load.P5_IP Bus1=P5.2.3.4 phases=1 conn=wye Model=5 kV=0.22 kW=0.15 pf=1.0 Vminpu=0.92 Vmaxpu=1.50 daily=CurvaIP status=variable 
New Load.P6_IP Bus1=P6.1.3.4 phases=1 conn=wye Model=5 kV=0.22 kW=0.15 pf=1.0 Vminpu=0.92 Vmaxpu=1.50 daily=CurvaIP status=variable 
New Load.P7_IP Bus1=P7.1.2.4 phases=1 conn=wye Model=5 kV=0.22 kW=0.15 pf=1.0 Vminpu=0.92 Vmaxpu=1.50 daily=CurvaIP status=variable 
New Load.P8_IP Bus1=P8.2.3.4 phases=1 conn=wye Model=5 kV=0.22 kW=0.15 pf=1.0 Vminpu=0.92 Vmaxpu=1.50 daily=CurvaIP status=variable 
New Load.P9_IP Bus1=P9.1.3.4 phases=1 conn=wye Model=5 kV=0.22 kW=0.15 pf=1.0 Vminpu=0.92 Vmaxpu=1.50 daily=CurvaIP status=variable 
New Load.P10_IP Bus1=P10.1.2.4 phases=1 conn=wye Model=5 kV=0.22 kW=0.15 pf=1.0 Vminpu=0.92 Vmaxpu=1.50 daily=CurvaIP status=variable 
New Load.P11_IP Bus1=P11.2.3.4 phases=1 conn=wye Model=5 kV=0.22 kW=0.15 pf=1.0 Vminpu=0.92 Vmaxpu=1.50 daily=CurvaIP status=variable 
New Load.P12_IP Bus1=P12.1.3.4 phases=1 conn=wye Model=5 kV=0.22 kW=0.15 pf=1.0 Vminpu=0.92 Vmaxpu=1.50 daily=CurvaIP status=variable 
New Load.P13_IP Bus1=P13.1.2.4 phases=1 conn=wye Model=5 kV=0.22 kW=0.15 pf=1.0 Vminpu=0.92 Vmaxpu=1.50 daily=CurvaIP status=variable 
New Load.P14_IP Bus1=P14.2.3.4 phases=1 conn=wye Model=5 kV=0.22 kW=0.15 pf=1.0 Vminpu=0.92 Vmaxpu=1.50 daily=CurvaIP status=variable 
New Load.P15_IP Bus1=P15.1.3.4 phases=1 conn=wye Model=5 kV=0.22 kW=0.15 pf=1.0 Vminpu=0.92 Vmaxpu=1.50 daily=CurvaIP status=variable 

// Alocação das baterias (storage)
New Storage.BateriaP7 bus=P7.1.2.3.4 phases=3 kv=0.22 conn=wye kwrated=25 kwhrated=150 dispmode=follow daily=Storage_Device

// Monitores
New Monitor.VP7 element= Load.P7_1 terminal=1 mode=0
New Monitor.PTRAFO element= Transformer.Trafo terminal=1 mode=1 ppolar=no

!New monitor.BAT_P7_power element=Storage.BateriaP7 terminal=1 mode=1 ppolar=no
!New monitor.BAT_P7_voltage element=Storage.BateriaP7 terminal=1 mode=0
!New monitor.BAT_P7_variables element=Storage.BateriaP7 terminal=1 mode=3

// Medidor de Energia
New EnergyMeter.ETRAFO element= Transformer.TRAFO terminal=1

Set voltagebases=[13.8 0.22 ]
Calcvoltagebases

Set mode=Daily 
Set stepsize=10m 
Set number=144

Solve