purposes/MT_VLN_Node.Txt

LINE-GROUND and LINE-LINE VOLTAGES BY BUS & NODE

Bus  Node    VLN (kV)   Angle      pu     Base kV    Node-Node   VLL (kV)  Angle      pu

P0 . 1       8.0471 /_    0.0      1.01    13.800        1-2     13.938 /_   30.0      1.01
   - 2       8.0471 /_ -120.0      1.01    13.800        2-3     13.938 /_  -90.0      1.01
   - 3       8.0471 /_  120.0      1.01    13.800        3-1     13.938 /_  150.0      1.01
P1 . 1       0.1271 /_  -32.8    1.0006     0.220        1-2    0.22069 /_   -3.2    1.0031
   - 2      0.12695 /_ -153.4   0.99945     0.220        2-3    0.21848 /_ -123.4   0.99311
   - 3       0.1258 /_   86.9   0.99038     0.220        3-1    0.21873 /_  117.2   0.99422
   - 4   4.0175E-010 /_   16.0 3.163E-009     0.220
P2 . 1      0.12485 /_  -33.0   0.98294     0.220        1-2    0.21709 /_   -3.2   0.98677
   - 2      0.12518 /_ -153.5    0.9855     0.220        2-3    0.21571 /_ -123.6    0.9805
   - 3        0.124 /_   86.6   0.97628     0.220        3-1    0.21504 /_  116.9   0.97745
   - 4   8.742E-005 /_ -178.6 0.00068825     0.220
P3 . 1      0.12275 /_  -33.2   0.96638     0.220        1-2    0.21367 /_   -3.3   0.97122
   - 2       0.1236 /_ -153.5   0.97309     0.220        2-3    0.21344 /_ -123.8   0.97019
   - 3      0.12255 /_   86.2   0.96485     0.220        3-1    0.21184 /_  116.5   0.96291
   - 4   0.00010888 /_  166.8 0.00085719     0.220
P4 . 1        0.121 /_  -33.4   0.95261     0.220        1-2    0.21078 /_   -3.3    0.9581
   - 2      0.12229 /_ -153.5   0.96281     0.220        2-3    0.21165 /_ -123.9   0.96205
   - 3      0.12139 /_   85.9    0.9557     0.220        3-1    0.20921 /_  116.2   0.95096
   - 4   0.00019239 /_  153.2 0.0015147     0.220
P5 . 1      0.11943 /_  -33.6   0.94025     0.220        1-2    0.20831 /_   -3.3   0.94684
   - 2      0.12116 /_ -153.5   0.95392     0.220        2-3    0.21005 /_ -124.1   0.95476
   - 3      0.12033 /_   85.6   0.94733     0.220        3-1    0.20677 /_  115.9   0.93988
   - 4   0.00025584 /_  168.0 0.0020142     0.220
P6 . 1      0.11877 /_  -33.8   0.93507     0.220        1-2    0.20676 /_   -3.4   0.93983
   - 2      0.12029 /_ -153.5   0.94702     0.220        2-3    0.20903 /_ -124.0   0.95011
   - 3      0.11997 /_   85.5    0.9445     0.220        3-1    0.20606 /_  115.7   0.93663
   - 4    0.0003294 /_  176.6 0.0025933     0.220
P7 . 1      0.11841 /_  -33.9   0.93223     0.220        1-2    0.20612 /_   -3.5   0.93691
   - 2      0.11992 /_ -153.6   0.94412     0.220        2-3    0.20841 /_ -124.1   0.94731
   - 3      0.11962 /_   85.5   0.94177     0.220        3-1    0.20546 /_  115.6   0.93389
   - 4   0.00032884 /_  176.6 0.0025889     0.220
P8 . 1      0.12544 /_  -33.1   0.98756     0.220        1-2    0.21699 /_   -3.8   0.98634
   - 2      0.12393 /_ -154.0   0.97571     0.220        2-3    0.21246 /_ -123.6   0.96574
   - 3      0.12282 /_   87.1   0.96694     0.220        3-1    0.21519 /_  117.4   0.97813
   - 4     0.000111 /_   10.6 0.00087386     0.220
P9 . 1      0.12441 /_  -33.0    0.9795     0.220        1-2    0.21498 /_   -3.9   0.97718
   - 2      0.12232 /_ -154.3   0.96301     0.220        2-3    0.20921 /_ -123.7   0.95096
   - 3      0.12115 /_   87.3   0.95378     0.220        3-1    0.21299 /_  117.6   0.96814
   - 4   0.00014781 /_  -38.0 0.0011637     0.220
P10  1      0.12342 /_  -33.0   0.97169     0.220        1-2    0.21336 /_   -4.0   0.96981
   - 2      0.12121 /_ -154.4   0.95432     0.220        2-3    0.20692 /_ -123.7   0.94054
   - 3      0.11984 /_   87.3   0.94347     0.220        3-1      0.211 /_  117.6   0.95911
   - 4   0.00027533 /_  -40.2 0.0021677     0.220
P11  1       0.1233 /_  -33.0    0.9707     0.220        1-2    0.21293 /_   -4.1   0.96786
   - 2      0.12072 /_ -154.5   0.95043     0.220        2-3    0.20586 /_ -123.7   0.93574
   - 3      0.11943 /_   87.5   0.94023     0.220        3-1     0.2107 /_  117.8   0.95773
   - 4   0.00040301 /_  -41.0 0.0031729     0.220
P12  1      0.12474 /_  -33.3   0.98208     0.220        1-2    0.21517 /_   -4.1   0.97803
   - 2       0.1224 /_ -154.3   0.96363     0.220        2-3    0.20946 /_ -123.7   0.95208
   - 3      0.12138 /_   87.2   0.95561     0.220        3-1    0.21367 /_  117.4   0.97121
   - 4    0.0002127 /_   53.9 0.0016746     0.220
P13  1      0.12434 /_  -33.3   0.97892     0.220        1-2    0.21423 /_   -4.3   0.97376
   - 2      0.12159 /_ -154.5   0.95731     0.220        2-3    0.20773 /_ -123.8   0.94421
   - 3      0.12045 /_   87.3   0.94831     0.220        3-1    0.21265 /_  117.5   0.96658
   - 4   0.00035292 /_   66.3 0.0027785     0.220
P14  1      0.12373 /_  -33.4   0.97408     0.220        1-2    0.21299 /_   -4.4   0.96814
   - 2       0.1207 /_ -154.6   0.95025     0.220        2-3    0.20595 /_ -123.8   0.93612
   - 3      0.11949 /_   87.3   0.94074     0.220        3-1    0.21138 /_  117.5   0.96082
   - 4   0.00043862 /_   68.6 0.0034532     0.220
P15  1      0.12369 /_  -33.4   0.97384     0.220        1-2    0.21277 /_   -4.5   0.96714
   - 2      0.12041 /_ -154.7   0.94795     0.220        2-3    0.20524 /_ -123.8   0.93291
   - 3      0.11914 /_   87.4   0.93802     0.220        3-1    0.21115 /_  117.6   0.95978
   - 4   0.00052477 /_   70.1 0.0041315     0.220
